iidm/iidm-serde/src/test/resources/V1_16/generator.xml
<?xml version="1.0" encoding="UTF-8"?>
<iidm:network xmlns:iidm="http://www.powsybl.org/schema/iidm/1_16" id="internal-connections" caseDate="2018-11-08T12:33:26.208+01:00" forecastDistance="0" sourceFormat="test" minimumValidationLevel="STEADY_STATE_HYPOTHESIS">
    <iidm:substation id="substation" country="FI">
        <iidm:voltageLevel id="voltageLevel" nominalV="400.0" topologyKind="NODE_BREAKER">
            <iidm:nodeBreakerTopology>
                <iidm:busbarSection id="bbs" node="3"/>
                <iidm:switch id="breaker1" kind="BREAKER" retained="false" open="false" node1="0" node2="3"/>
                <iidm:switch id="breaker2" kind="BREAKER" retained="false" open="false" node1="1" node2="3"/>
                <iidm:switch id="breaker3" kind="BREAKER" retained="false" open="false" node1="2" node2="3"/>
            </iidm:nodeBreakerTopology>
            <iidm:generator id="generator1" energySource="OTHER" minP="0.0" maxP="100.0" voltageRegulatorOn="true" targetP="10.0" targetV="400.0" isCondenser="true" node="0">
                <iidm:minMaxReactiveLimits minQ="-1.7976931348623157E308" maxQ="1.7976931348623157E308"/>
            </iidm:generator>
            <iidm:generator id="generator2" energySource="OTHER" minP="0.0" maxP="100.0" voltageRegulatorOn="true" targetP="10.0" targetV="400.0" node="1">
                <iidm:minMaxReactiveLimits minQ="-1.7976931348623157E308" maxQ="1.7976931348623157E308"/>
            </iidm:generator>
            <iidm:load id="load" loadType="UNDEFINED" p0="10.0" q0="1.0" node="2"/>
        </iidm:voltageLevel>
    </iidm:substation>
</iidm:network>
